       8
SCF Done            -162.17933345
Mg            0.000000000         0.000000000         0.000000000
Mg            2.105398398         2.105398398        -0.000000000
Mg            2.105398398        -0.000000000         2.105398398
Mg           -0.000000000         2.105398398         2.105398398
O             2.105398398        -0.000000000         0.000000000
O            -0.000000000         2.105398398        -0.000000000
O             0.000000000        -0.000000000         2.105398398
O             2.105398398         2.105398398         2.105398398
