      32
SCF Done               0.00000000
U             0.000000000         0.000000000         0.000000000
U             3.315000000         3.315000000         3.315000000
U             1.657500000         3.315000000         0.000000000
U             4.972500000         3.315000000         0.000000000
U             0.000000000         1.657500000         3.315000000
U             3.315000000         0.000000000         1.657500000
U             0.000000000         4.972500000         3.315000000
U             3.315000000         0.000000000         4.972500000
H             0.000000000         1.034280000         2.075190000
H             0.000000000         5.595720000         2.075190000
H             0.000000000         5.595720000         4.554810000
H             0.000000000         1.034280000         4.554810000
H             2.075190000         0.000000000         1.034280000
H             1.034280000         2.075190000         0.000000000
H             4.554810000         0.000000000         1.034280000
H             5.595720000         2.075190000         0.000000000
H             2.075190000         0.000000000         5.595720000
H             5.595720000         4.554810000         0.000000000
H             4.554810000         0.000000000         5.595720000
H             1.034280000         4.554810000         0.000000000
H             2.280720000         3.315000000         1.239810000
H             4.349280000         3.315000000         1.239810000
H             4.349280000         3.315000000         5.390190000
H             2.280720000         3.315000000         5.390190000
H             3.315000000         1.239810000         2.280720000
H             1.239810000         2.280720000         3.315000000
H             3.315000000         5.390190000         2.280720000
H             1.239810000         4.349280000         3.315000000
H             3.315000000         1.239810000         4.349280000
H             5.390190000         4.349280000         3.315000000
H             3.315000000         5.390190000         4.349280000
H             5.390190000         2.280720000         3.315000000
